IEEE data/005_bus/bpa/005bpa.DAT
(POWERFLOW,CASEID=EMS,PROJECT=TEST)
/P_INPUT_LIST,FULL\
/P_OUTPUT_LIST,FULL\
/P_ANALYSIS_RPT,LEVEL=4\
/NETWORK_DATA\
.234567890*234567890*234567890*234567890*234567890*234567890*234567890*234567890
B     bus_1    100 1160. 80.                                                                                                                                                                                                                                                                               
B     bus_2    100 1200. 100.                                                                                                                                                                                                                                                                              
B     bus_3    100 1370. 130.                                                                                                                                                                                                                                                                              
BQ    bus_4    100 1                      500. 99990-99991050                                                                                                                                                                                                                                              
BS    bus_5    100 1                      257.999990-99991050                                                                                                                                                                                                                                              
-999
.234567890*234567890*234567890*234567890*234567890*234567890*234567890*234567890
.234567890*234567890*234567890*234567890*234567890*234567890*234567890*234567890
L     bus_2    100 bus_1    100       .04   .25         .25                                                                                                                                                                                                                                                
L     bus_3    100 bus_1    100       .1    .35                                                                                                                                                                                                                                                            
L     bus_3    100 bus_2    100       .08   .3          .25                                                                                                                                                                                                                                                
T     bus_5    100 bus_3    100             .03               100. 10500                                                                                                                                                                                                                                   
T     bus_4    100 bus_2    100             .015              100. 10500                                                                                                                                                                                                                                   
.234567890*234567890*234567890*234567890*234567890*234567890*234567890*234567890
(END)